@<TRIPOS>MOLECULE
HEC.pdb
 102 105 0 0 0
SMALL
GASTEIGER

@<TRIPOS>ATOM
      1  C1        -5.2290   -4.4600   -3.1590 C.3   900  UNK900     -0.0361
      2  C2        -4.4650   -3.2920   -2.5010 C.3   900  UNK900      0.0848
      3  C3        -3.0060   -3.1000   -2.9830 C.3   900  UNK900      0.1093
      4  C4        -2.0870   -4.1760   -2.3820 C.3   900  UNK900      0.1121
      5  C5        -2.2240   -4.2110   -0.8430 C.3   900  UNK900      0.1182
      6  C6        -3.7110   -4.4430   -0.4930 C.3   900  UNK900      0.1107
      7  O1        -4.5090   -3.4080   -1.0760 O.3   900  UNK900     -0.3661
      8  C7        -4.0000   -4.4640    1.0200 C.3   900  UNK900      0.0729
      9  O2        -3.3660   -5.5650    1.6360 O.3   900  UNK900     -0.3924
     10  O3        -1.8730   -2.9880   -0.1910 O.3   900  UNK900     -0.3401
     11  C8        -0.5090   -2.7600    0.0140 C.3   900  UNK900      0.1884
     12  C9        -0.3120   -2.0580    1.3800 C.3   900  UNK900      0.1341
     13  C10       -0.9610   -0.6650    1.3150 C.3   900  UNK900      0.1144
     14  C11       -0.3220    0.1450    0.1630 C.3   900  UNK900      0.1184
     15  C12       -0.5940   -0.6590   -1.1260 C.3   900  UNK900      0.1137
     16  O4         0.0220   -1.9460   -0.9920 O.3   900  UNK900     -0.3405
     17  C13       -0.0490   -0.0010   -2.3970 C.3   900  UNK900      0.0796
     18  O5        -0.5140   -0.7460   -3.5170 O.3   900  UNK900     -0.3460
     19  C14        0.0790   -0.4670   -4.7500 C.3   900  UNK900      0.1880
     20  C15       -0.3150    0.9590   -5.2340 C.3   900  UNK900      0.1341
     21  C16        0.4550    1.2520   -6.5350 C.3   900  UNK900      0.1143
     22  C17        1.9670    1.0690   -6.3230 C.3   900  UNK900      0.1150
     23  C18        2.1970   -0.3870   -5.8750 C.3   900  UNK900      0.1133
     24  O6         1.4700   -0.6050   -4.6700 O.3   900  UNK900     -0.3405
     25  C19        3.6730   -0.7310   -5.6120 C.3   900  UNK900      0.0730
     26  O7         4.4080   -0.7260   -6.8180 O.3   900  UNK900     -0.3924
     27  O8         2.4470    1.8980   -5.2670 O.3   900  UNK900     -0.3745
     28  C20        3.1020    3.0800   -5.7000 C.3   900  UNK900      0.0370
     29  O9         0.1960    2.5490   -7.0350 O.3   900  UNK900     -0.3864
     30  O10       -1.6950    1.0050   -5.5410 O.3   900  UNK900     -0.3841
     31  O11        1.1060    0.2520    0.1890 O.3   900  UNK900     -0.3401
     32  C21        1.7670    0.9300    1.2210 C.3   900  UNK900      0.1887
     33  C22        1.5450    2.4630    1.1810 C.3   900  UNK900      0.1376
     34  C23        2.1170    3.0770   -0.1180 C.3   900  UNK900      0.1146
     35  C24        3.5930    2.6490   -0.2730 C.3   900  UNK900      0.1150
     36  C25        3.7550    1.1200   -0.0860 C.3   900  UNK900      0.1133
     37  O12        3.1440    0.7130    1.1440 O.3   900  UNK900     -0.3405
     38  C26        5.2290    0.6830   -0.0660 C.3   900  UNK900      0.0730
     39  O13        5.3390   -0.6800   -0.4160 O.3   900  UNK900     -0.3924
     40  O14        4.4150    3.3100    0.6850 O.3   900  UNK900     -0.3745
     41  C27        4.8310    4.6130    0.3050 C.3   900  UNK900      0.0370
     42  O15        1.4010    2.6720   -1.2670 O.3   900  UNK900     -0.3864
     43  O16        0.2020    2.8000    1.5080 O.3   900  UNK900     -0.3666
     44  C28       -0.0480    4.1760    1.7480 C.3   900  UNK900      0.0714
     45  C29       -1.4800    4.3200    2.2770 C.3   900  UNK900      0.0676
     46  O17       -2.3980    4.2900    1.2050 O.3   900  UNK900     -0.3927
     47  O18       -0.9130    0.0440    2.5380 O.3   900  UNK900     -0.3864
     48  O19       -0.8280   -2.8490    2.4320 O.3   900  UNK900     -0.3841
     49  O20       -0.7380   -4.0330   -2.7770 O.3   900  UNK900     -0.3865
     50  O21       -2.9530   -3.1340   -4.3970 O.3   900  UNK900     -0.3866
     51  H1        -5.3600   -4.2930   -4.2280 H     900  UNK900      0.0255
     52  H2        -6.2240   -4.5610   -2.7250 H     900  UNK900      0.0255
     53  H3        -4.7190   -5.4150   -3.0400 H     900  UNK900      0.0255
     54  H4        -5.0160   -2.3830   -2.7440 H     900  UNK900      0.0620
     55  H5        -2.6660   -2.1160   -2.6700 H     900  UNK900      0.0646
     56  H6        -2.3950   -5.1490   -2.7650 H     900  UNK900      0.0647
     57  H7        -1.6420   -5.0390   -0.4360 H     900  UNK900      0.0650
     58  H8        -4.0290   -5.4040   -0.8970 H     900  UNK900      0.0646
     59  H9        -3.6800   -3.5410    1.5020 H     900  UNK900      0.0584
     60  H10       -5.0730   -4.5530    1.1900 H     900  UNK900      0.0584
     61  H11       -3.5750   -5.5550    2.5570 H     900  UNK900      0.2095
     62  H12        0.0490   -3.6990    0.0070 H     900  UNK900      0.0938
     63  H13        0.7610   -1.9590    1.5520 H     900  UNK900      0.0671
     64  H14       -2.0260   -0.7790    1.1090 H     900  UNK900      0.0648
     65  H15       -0.7910    1.1240    0.0710 H     900  UNK900      0.0651
     66  H16       -1.6720   -0.7590   -1.2470 H     900  UNK900      0.0647
     67  H17       -0.4210    1.0210   -2.4520 H     900  UNK900      0.0587
     68  H18        1.0400    0.0380   -2.3620 H     900  UNK900      0.0587
     69  H19       -0.2870   -1.2240   -5.4470 H     900  UNK900      0.0937
     70  H20       -0.0670    1.7060   -4.4820 H     900  UNK900      0.0671
     71  H21        0.1290    0.5550   -7.3100 H     900  UNK900      0.0648
     72  H22        2.5070    1.2490   -7.2550 H     900  UNK900      0.0649
     73  H23        1.8160   -1.0740   -6.6340 H     900  UNK900      0.0647
     74  H24        4.1250   -0.0380   -4.9020 H     900  UNK900      0.0584
     75  H25        3.7500   -1.7270   -5.1750 H     900  UNK900      0.0584
     76  H26        4.3840    0.1460   -7.1800 H     900  UNK900      0.2095
     77  H27        3.4390    3.6450   -4.8310 H     900  UNK900      0.0524
     78  H28        2.4410    3.7220   -6.2800 H     900  UNK900      0.0524
     79  H29        3.9790    2.8430   -6.3030 H     900  UNK900      0.0524
     80  H30        0.4470    3.1770   -6.3740 H     900  UNK900      0.2100
     81  H31       -1.8770    0.3590   -6.2060 H     900  UNK900      0.2101
     82  H32        1.4780    0.5180    2.1850 H     900  UNK900      0.0938
     83  H33        2.1440    2.8500    2.0070 H     900  UNK900      0.0674
     84  H34        2.0550    4.1630   -0.0840 H     900  UNK900      0.0648
     85  H35        3.9480    2.9050   -1.2740 H     900  UNK900      0.0649
     86  H36        3.2650    0.6210   -0.9250 H     900  UNK900      0.0647
     87  H37        5.8010    1.2530   -0.8000 H     900  UNK900      0.0584
     88  H38        5.6840    0.8630    0.9090 H     900  UNK900      0.0584
     89  H39        6.2520   -0.9240   -0.3920 H     900  UNK900      0.2095
     90  H40        5.4550    5.0360    1.0920 H     900  UNK900      0.0524
     91  H41        3.9860    5.2860    0.1550 H     900  UNK900      0.0524
     92  H42        5.4220    4.5860   -0.6110 H     900  UNK900      0.0524
     93  H43        1.4180    1.7280   -1.3090 H     900  UNK900      0.2100
     94  H44        0.6490    4.5380    2.5050 H     900  UNK900      0.0583
     95  H45        0.0980    4.7800    0.8520 H     900  UNK900      0.0583
     96  H46       -1.7150    3.5420    3.0030 H     900  UNK900      0.0580
     97  H47       -1.5920    5.2800    2.7820 H     900  UNK900      0.0580
     98  H48       -3.2690    4.4020    1.5520 H     900  UNK900      0.2095
     99  H49       -1.3250    0.8850    2.4120 H     900  UNK900      0.2100
    100  H50       -1.7540   -2.9670    2.2850 H     900  UNK900      0.2101
    101  H51       -0.4280   -3.1900   -2.4800 H     900  UNK900      0.2100
    102  H52       -3.2110   -3.9960   -4.6850 H     900  UNK900      0.2100
@<TRIPOS>BOND
     1    71    21    1
     2    72    22    1
     3    76    26    1
     4    29    21    1
     5    29    80    1
     6    26    25    1
     7    73    23    1
     8    21    22    1
     9    21    20    1
    10    22    23    1
    11    22    27    1
    12    79    28    1
    13    78    28    1
    14    81    30    1
    15    23    25    1
    16    23    24    1
    17    28    27    1
    18    28    77    1
    19    25    75    1
    20    25    74    1
    21    30    20    1
    22    69    19    1
    23    20    19    1
    24    20    70    1
    25    19    24    1
    26    19    18    1
    27   102    50    1
    28    50     3    1
    29    51     1    1
    30    18    17    1
    31     1    53    1
    32     1    52    1
    33     1     2    1
    34     3    55    1
    35     3     2    1
    36     3     4    1
    37    49   101    1
    38    49     4    1
    39    56     4    1
    40    54     2    1
    41     2     7    1
    42    67    17    1
    43    17    68    1
    44    17    15    1
    45     4     5    1
    46    93    42    1
    47    85    35    1
    48    42    34    1
    49    66    15    1
    50    15    16    1
    51    15    14    1
    52     7     6    1
    53    16    11    1
    54    86    36    1
    55    58     6    1
    56     5     6    1
    57     5    57    1
    58     5    10    1
    59    87    38    1
    60    92    41    1
    61     6     8    1
    62    39    89    1
    63    39    38    1
    64    35    34    1
    65    35    36    1
    66    35    40    1
    67    10    11    1
    68    34    84    1
    69    34    33    1
    70    36    38    1
    71    36    37    1
    72    38    88    1
    73    62    11    1
    74    11    12    1
    75    65    14    1
    76    91    41    1
    77    14    31    1
    78    14    13    1
    79    31    32    1
    80    41    40    1
    81    41    90    1
    82    95    44    1
    83     8    60    1
    84     8    59    1
    85     8     9    1
    86    64    13    1
    87    37    32    1
    88    33    32    1
    89    33    43    1
    90    33    83    1
    91    46    98    1
    92    46    45    1
    93    32    82    1
    94    13    12    1
    95    13    47    1
    96    12    63    1
    97    12    48    1
    98    43    44    1
    99     9    61    1
   100    44    45    1
   101    44    94    1
   102    45    97    1
   103    45    96    1
   104   100    48    1
   105    99    47    1
