@<TRIPOS>MOLECULE
HEC.pdb
  102   105     1     0     0
SMALL
bcc


@<TRIPOS>ATOM
      1 C1          -5.2290    -4.4600    -3.1590 c3       900 UNK      -0.132100
      2 C2          -4.4650    -3.2920    -2.5010 c3       900 UNK       0.116100
      3 C3          -3.0060    -3.1000    -2.9830 c3       900 UNK       0.082100
      4 C4          -2.0870    -4.1760    -2.3820 c3       900 UNK       0.092100
      5 C5          -2.2240    -4.2110    -0.8430 c3       900 UNK       0.101100
      6 C6          -3.7110    -4.4430    -0.4930 c3       900 UNK       0.141100
      7 O1          -4.5090    -3.4080    -1.0760 os       900 UNK      -0.406600
      8 C7          -4.0000    -4.4640     1.0200 c3       900 UNK       0.133400
      9 O2          -3.3660    -5.5650     1.6360 oh       900 UNK      -0.607800
     10 O3          -1.8730    -2.9880    -0.1910 os       900 UNK      -0.455600
     11 C8          -0.5090    -2.7600     0.0140 c3       900 UNK       0.291900
     12 C9          -0.3120    -2.0580     1.3800 c3       900 UNK       0.131100
     13 C10         -0.9610    -0.6650     1.3150 c3       900 UNK       0.085100
     14 C11         -0.3220     0.1450     0.1630 c3       900 UNK       0.092100
     15 C12         -0.5940    -0.6590    -1.1260 c3       900 UNK       0.142100
     16 O4           0.0220    -1.9460    -0.9920 os       900 UNK      -0.409600
     17 C13         -0.0490    -0.0010    -2.3970 c3       900 UNK       0.130400
     18 O5          -0.5140    -0.7460    -3.5170 os       900 UNK      -0.402600
     19 C14          0.0790    -0.4670    -4.7500 c3       900 UNK       0.316900
     20 C15         -0.3150     0.9590    -5.2340 c3       900 UNK       0.053100
     21 C16          0.4550     1.2520    -6.5350 c3       900 UNK       0.092100
     22 C17          1.9670     1.0690    -6.3230 c3       900 UNK       0.076100
     23 C18          2.1970    -0.3870    -5.8750 c3       900 UNK       0.116100
     24 O6           1.4700    -0.6050    -4.6700 os       900 UNK      -0.426600
     25 C19          3.6730    -0.7310    -5.6120 c3       900 UNK       0.141400
     26 O7           4.4080    -0.7260    -6.8180 oh       900 UNK      -0.599800
     27 O8           2.4470     1.8980    -5.2670 os       900 UNK      -0.424600
     28 C20          3.1020     3.0800    -5.7000 c3       900 UNK       0.104700
     29 O9           0.1960     2.5490    -7.0350 oh       900 UNK      -0.584800
     30 O10         -1.6950     1.0050    -5.5410 oh       900 UNK      -0.568800
     31 O11          1.1060     0.2520     0.1890 os       900 UNK      -0.451600
     32 C21          1.7670     0.9300     1.2210 c3       900 UNK       0.335900
     33 C22          1.5450     2.4630     1.1810 c3       900 UNK       0.064100
     34 C23          2.1170     3.0770    -0.1180 c3       900 UNK       0.100100
     35 C24          3.5930     2.6490    -0.2730 c3       900 UNK       0.082100
     36 C25          3.7550     1.1200    -0.0860 c3       900 UNK       0.097100
     37 O12          3.1440     0.7130     1.1440 os       900 UNK      -0.401600
     38 C26          5.2290     0.6830    -0.0660 c3       900 UNK       0.145400
     39 O13          5.3390    -0.6800    -0.4160 oh       900 UNK      -0.598800
     40 O14          4.4150     3.3100     0.6850 os       900 UNK      -0.411600
     41 C27          4.8310     4.6130     0.3050 c3       900 UNK       0.111700
     42 O15          1.4010     2.6720    -1.2670 oh       900 UNK      -0.591800
     43 O16          0.2020     2.8000     1.5080 os       900 UNK      -0.434600
     44 C28         -0.0480     4.1760     1.7480 c3       900 UNK       0.124400
     45 C29         -1.4800     4.3200     2.2770 c3       900 UNK       0.124400
     46 O17         -2.3980     4.2900     1.2050 oh       900 UNK      -0.595800
     47 O18         -0.9130     0.0440     2.5380 oh       900 UNK      -0.592800
     48 O19         -0.8280    -2.8490     2.4320 oh       900 UNK      -0.576800
     49 O20         -0.7380    -4.0330    -2.7770 oh       900 UNK      -0.598800
     50 O21         -2.9530    -3.1340    -4.3970 oh       900 UNK      -0.581800
     51 H1          -5.3600    -4.2930    -4.2280 hc       900 UNK       0.046700
     52 H2          -6.2240    -4.5610    -2.7250 hc       900 UNK       0.046700
     53 H3          -4.7190    -5.4150    -3.0400 hc       900 UNK       0.046700
     54 H4          -5.0160    -2.3830    -2.7440 h1       900 UNK       0.087700
     55 H5          -2.6660    -2.1160    -2.6700 h1       900 UNK       0.112700
     56 H6          -2.3950    -5.1490    -2.7650 h1       900 UNK       0.069700
     57 H7          -1.6420    -5.0390    -0.4360 h1       900 UNK       0.079700
     58 H8          -4.0290    -5.4040    -0.8970 h1       900 UNK       0.055700
     59 H9          -3.6800    -3.5410     1.5020 h1       900 UNK       0.043700
     60 H10         -5.0730    -4.5530     1.1900 h1       900 UNK       0.043700
     61 H11         -3.5750    -5.5550     2.5570 ho       900 UNK       0.411000
     62 H12          0.0490    -3.6990     0.0070 h2       900 UNK       0.112700
     63 H13          0.7610    -1.9590     1.5520 h1       900 UNK       0.108700
     64 H14         -2.0260    -0.7790     1.1090 h1       900 UNK       0.055700
     65 H15         -0.7910     1.1240     0.0710 h1       900 UNK       0.083700
     66 H16         -1.6720    -0.7590    -1.2470 h1       900 UNK       0.081700
     67 H17         -0.4210     1.0210    -2.4520 h1       900 UNK       0.065700
     68 H18          1.0400     0.0380    -2.3620 h1       900 UNK       0.065700
     69 H19         -0.2870    -1.2240    -5.4470 h2       900 UNK       0.079700
     70 H20         -0.0670     1.7060    -4.4820 h1       900 UNK       0.105700
     71 H21          0.1290     0.5550    -7.3100 h1       900 UNK       0.075700
     72 H22          2.5070     1.2490    -7.2550 h1       900 UNK       0.074700
     73 H23          1.8160    -1.0740    -6.6340 h1       900 UNK       0.051700
     74 H24          4.1250    -0.0380    -4.9020 h1       900 UNK       0.069200
     75 H25          3.7500    -1.7270    -5.1750 h1       900 UNK       0.069200
     76 H26          4.3840     0.1460    -7.1800 ho       900 UNK       0.405000
     77 H27          3.4390     3.6450    -4.8310 h1       900 UNK       0.041700
     78 H28          2.4410     3.7220    -6.2800 h1       900 UNK       0.041700
     79 H29          3.9790     2.8430    -6.3030 h1       900 UNK       0.041700
     80 H30          0.4470     3.1770    -6.3740 ho       900 UNK       0.414000
     81 H31         -1.8770     0.3590    -6.2060 ho       900 UNK       0.404000
     82 H32          1.4780     0.5180     2.1850 h2       900 UNK       0.121700
     83 H33          2.1440     2.8500     2.0070 h1       900 UNK       0.075700
     84 H34          2.0550     4.1630    -0.0840 h1       900 UNK       0.077700
     85 H35          3.9480     2.9050    -1.2740 h1       900 UNK       0.065700
     86 H36          3.2650     0.6210    -0.9250 h1       900 UNK       0.078700
     87 H37          5.8010     1.2530    -0.8000 h1       900 UNK       0.060200
     88 H38          5.6840     0.8630     0.9090 h1       900 UNK       0.060200
     89 H39          6.2520    -0.9240    -0.3920 ho       900 UNK       0.416000
     90 H40          5.4550     5.0360     1.0920 h1       900 UNK       0.036700
     91 H41          3.9860     5.2860     0.1550 h1       900 UNK       0.036700
     92 H42          5.4220     4.5860    -0.6110 h1       900 UNK       0.036700
     93 H43          1.4180     1.7280    -1.3090 ho       900 UNK       0.420000
     94 H44          0.6490     4.5380     2.5050 h1       900 UNK       0.055700
     95 H45          0.0980     4.7800     0.8520 h1       900 UNK       0.055700
     96 H46         -1.7150     3.5420     3.0030 h1       900 UNK       0.034700
     97 H47         -1.5920     5.2800     2.7820 h1       900 UNK       0.034700
     98 H48         -3.2690     4.4020     1.5520 ho       900 UNK       0.403000
     99 H49         -1.3250     0.8850     2.4120 ho       900 UNK       0.417000
    100 H50         -1.7540    -2.9670     2.2850 ho       900 UNK       0.414000
    101 H51         -0.4280    -3.1900    -2.4800 ho       900 UNK       0.440000
    102 H52         -3.2110    -3.9960    -4.6850 ho       900 UNK       0.400000
@<TRIPOS>BOND
     1    71    21 1   
     2    72    22 1   
     3    76    26 1   
     4    29    21 1   
     5    29    80 1   
     6    26    25 1   
     7    73    23 1   
     8    21    22 1   
     9    21    20 1   
    10    22    23 1   
    11    22    27 1   
    12    79    28 1   
    13    78    28 1   
    14    81    30 1   
    15    23    25 1   
    16    23    24 1   
    17    28    27 1   
    18    28    77 1   
    19    25    75 1   
    20    25    74 1   
    21    30    20 1   
    22    69    19 1   
    23    20    19 1   
    24    20    70 1   
    25    19    24 1   
    26    19    18 1   
    27   102    50 1   
    28    50     3 1   
    29    51     1 1   
    30    18    17 1   
    31     1    53 1   
    32     1    52 1   
    33     1     2 1   
    34     3    55 1   
    35     3     2 1   
    36     3     4 1   
    37    49   101 1   
    38    49     4 1   
    39    56     4 1   
    40    54     2 1   
    41     2     7 1   
    42    67    17 1   
    43    17    68 1   
    44    17    15 1   
    45     4     5 1   
    46    93    42 1   
    47    85    35 1   
    48    42    34 1   
    49    66    15 1   
    50    15    16 1   
    51    15    14 1   
    52     7     6 1   
    53    16    11 1   
    54    86    36 1   
    55    58     6 1   
    56     5     6 1   
    57     5    57 1   
    58     5    10 1   
    59    87    38 1   
    60    92    41 1   
    61     6     8 1   
    62    39    89 1   
    63    39    38 1   
    64    35    34 1   
    65    35    36 1   
    66    35    40 1   
    67    10    11 1   
    68    34    84 1   
    69    34    33 1   
    70    36    38 1   
    71    36    37 1   
    72    38    88 1   
    73    62    11 1   
    74    11    12 1   
    75    65    14 1   
    76    91    41 1   
    77    14    31 1   
    78    14    13 1   
    79    31    32 1   
    80    41    40 1   
    81    41    90 1   
    82    95    44 1   
    83     8    60 1   
    84     8    59 1   
    85     8     9 1   
    86    64    13 1   
    87    37    32 1   
    88    33    32 1   
    89    33    43 1   
    90    33    83 1   
    91    46    98 1   
    92    46    45 1   
    93    32    82 1   
    94    13    12 1   
    95    13    47 1   
    96    12    63 1   
    97    12    48 1   
    98    43    44 1   
    99     9    61 1   
   100    44    45 1   
   101    44    94 1   
   102    45    97 1   
   103    45    96 1   
   104   100    48 1   
   105    99    47 1   
@<TRIPOS>SUBSTRUCTURE
     1 UNK         1 TEMP              0 ****  ****    0 ROOT
