@<TRIPOS>MOLECULE
CAP.pdb
 63 62 0 0 0
SMALL
GASTEIGER

@<TRIPOS>ATOM
      1  C1        -0.4210   -0.2220   -0.8760 C.3     0  CAP0       -0.0531
      2  C2         0.8700   -1.0260   -1.0860 C.3     0  CAP0       -0.0531
      3  C3         2.1080   -0.1310   -1.2390 C.3     0  CAP0       -0.0531
      4  C4         3.3850   -0.9450   -1.4930 C.3     0  CAP0       -0.0529
      5  C5         4.6300   -0.0620   -1.6620 C.3     0  CAP0       -0.0489
      6  C6         5.8910   -0.8870   -1.9670 C.3     0  CAP0       -0.0028
      7  C7         7.1440   -0.0250   -2.1800 C.3     0  CAP0        0.2007
      8  N1         8.2570   -0.8930   -2.5220 N.3     0  CAP0       -0.2828
      9  O1         7.5140    0.5700   -0.9610 O.3     0  CAP0       -0.2059
     10  C8         9.4410   -0.1390   -2.9070 C.3     0  CAP0        0.0034
     11  C9        10.6430   -1.0920   -2.8810 C.3     0  CAP0        0.0002
     12  C10       11.9810   -0.3320   -3.0440 C.3     0  CAP0       -0.0292
     13  N2        13.2430   -1.1250   -2.8470 N.4     0  CAP0        0.2431
     14  C11       14.3810   -0.1920   -3.1670 C.3     0  CAP0        0.0333
     15  C12       13.3360   -1.5900   -1.4330 C.3     0  CAP0       -0.0413
     16  C13       15.8380   -0.7090   -3.0030 C.3     0  CAP0        0.3025
     17  O2        16.6490    0.4370   -3.0200 O.3     0  CAP0       -0.3545
     18  O3        16.1490   -1.5560   -4.0790 O.3     0  CAP0       -0.1847
     19  C14       13.2480   -2.3070   -3.7560 C.3     0  CAP0       -0.0413
     20  C1        -1.6540   -1.1260   -0.7400 C.3     0  CAP0       -0.0531
     21  C2        -2.9550   -0.3300   -0.5620 C.3     0  CAP0       -0.0531
     22  C3        -4.1860   -1.2410   -0.4420 C.3     0  CAP0       -0.0533
     23  C4        -5.4920   -0.4500   -0.2800 C.3     0  CAP0       -0.0559
     24  C5        -6.7180   -1.3620   -0.1660 C.3     0  CAP0       -0.0653
     25  H2        -0.3240    0.3990    0.0160 H       0  CAP0        0.0265
     26  H3        -0.5640    0.4620   -1.7130 H       0  CAP0        0.0265
     27  H4         1.0140   -1.7060   -0.2450 H       0  CAP0        0.0265
     28  H5         0.7630   -1.6520   -1.9730 H       0  CAP0        0.0265
     29  H6         1.9500    0.5650   -2.0640 H       0  CAP0        0.0265
     30  H7         2.2300    0.4780   -0.3410 H       0  CAP0        0.0265
     31  H8         3.5410   -1.6400   -0.6660 H       0  CAP0        0.0265
     32  H9         3.2470   -1.5560   -2.3860 H       0  CAP0        0.0265
     33  H10        4.4620    0.6510   -2.4710 H       0  CAP0        0.0267
     34  H11        4.7760    0.5300   -0.7580 H       0  CAP0        0.0267
     35  H12        6.0630   -1.6100   -1.1670 H       0  CAP0        0.0309
     36  H13        5.7040   -1.4740   -2.8680 H       0  CAP0        0.0309
     37  H14        7.9620   -1.5040   -3.2720 H       0  CAP0        0.1248
     38  H15        9.3000    0.3120   -3.8900 H       0  CAP0        0.0427
     39  H16        9.6140    0.6760   -2.2020 H       0  CAP0        0.0427
     40  H17       10.6140   -1.6250   -1.9310 H       0  CAP0        0.0329
     41  H18       10.5130   -1.8360   -3.6670 H       0  CAP0        0.0329
     42  H19       11.9850    0.1160   -4.0400 H       0  CAP0        0.0815
     43  H20       11.9830    0.5070   -2.3450 H       0  CAP0        0.0815
     44  H21       14.2670    0.1920   -4.1830 H       0  CAP0        0.0871
     45  H22       14.2700    0.6800   -2.5190 H       0  CAP0        0.0871
     46  H23       17.4750    0.2820   -2.5790 H       0  CAP0        0.2132
     47  H24       14.2350   -2.1760   -1.2500 H       0  CAP0        0.0778
     48  H25       13.3350   -0.7510   -0.7350 H       0  CAP0        0.0778
     49  H26       12.5100   -2.2450   -1.1590 H       0  CAP0        0.0778
     50  H27       14.1320   -2.9280   -3.6140 H       0  CAP0        0.0778
     51  H28       12.4040   -2.9720   -3.5740 H       0  CAP0        0.0778
     52  H29       13.2180   -2.0030   -4.8030 H       0  CAP0        0.0778
     53  H1        -1.7380   -1.7600   -1.6250 H       0  CAP0        0.0265
     54  H2        -1.5210   -1.7990    0.1080 H       0  CAP0        0.0265
     55  H3        -2.8790    0.2990    0.3260 H       0  CAP0        0.0265
     56  H4        -3.0850    0.3460   -1.4090 H       0  CAP0        0.0265
     57  H5        -4.2550   -1.8760   -1.3260 H       0  CAP0        0.0265
     58  H6        -4.0590   -1.9110    0.4100 H       0  CAP0        0.0265
     59  H7        -5.4310    0.1840    0.6060 H       0  CAP0        0.0263
     60  H8        -5.6220    0.2220   -1.1300 H       0  CAP0        0.0263
     61  H9        -7.6310   -0.7750   -0.0540 H       0  CAP0        0.0230
     62  H10       -6.8330   -1.9840   -1.0550 H       0  CAP0        0.0230
     63  H11       -6.6420   -2.0230    0.6980 H       0  CAP0        0.0230
@<TRIPOS>UNITY_ATOM_ATTR
13 1
charge 1
@<TRIPOS>BOND
     1    52    19    1
     2    44    14    1
     3    18    16    1
     4    42    12    1
     5    38    10    1
     6    19    50    1
     7    19    51    1
     8    19    13    1
     9    41    11    1
    10    37     8    1
    11    14    16    1
    12    14    13    1
    13    14    45    1
    14    12    11    1
    15    12    13    1
    16    12    43    1
    17    17    16    1
    18    17    46    1
    19    10    11    1
    20    10     8    1
    21    10    39    1
    22    11    40    1
    23    36     6    1
    24    13    15    1
    25     8     7    1
    26    33     5    1
    27    32     4    1
    28     7     6    1
    29     7     9    1
    30    29     3    1
    31    28     2    1
    32     6     5    1
    33     6    35    1
    34    26     1    1
    35     5     4    1
    36     5    34    1
    37    53    20    1
    38     4     3    1
    39     4    31    1
    40    15    47    1
    41    15    49    1
    42    15    48    1
    43    56    21    1
    44    57    22    1
    45     3     2    1
    46     3    30    1
    47    60    23    1
    48     2     1    1
    49     2    27    1
    50    62    24    1
    51     1    20    1
    52     1    25    1
    53    20    21    1
    54    20    54    1
    55    21    22    1
    56    21    55    1
    57    22    23    1
    58    22    58    1
    59    23    24    1
    60    23    59    1
    61    24    61    1
    62    24    63    1
