@<TRIPOS>MOLECULE
CAP.pdb
   63    62     1     0     0
SMALL
bcc


@<TRIPOS>ATOM
      1 C1          -0.4210    -0.2220    -0.8760 c3         0 CAP      -0.078400
      2 C2           0.8700    -1.0260    -1.0860 c3         0 CAP      -0.079400
      3 C3           2.1080    -0.1310    -1.2390 c3         0 CAP      -0.079400
      4 C4           3.3850    -0.9450    -1.4930 c3         0 CAP      -0.081400
      5 C5           4.6300    -0.0620    -1.6620 c3         0 CAP      -0.078400
      6 C6           5.8910    -0.8870    -1.9670 c3         0 CAP      -0.151400
      7 C7           7.1440    -0.0250    -2.1800 c          0 CAP       0.679100
      8 N1           8.2570    -0.8930    -2.5220 n          0 CAP      -0.574900
      9 O1           7.5140     0.5700    -0.9610 o          0 CAP      -0.676100
     10 C8           9.4410    -0.1390    -2.9070 c3         0 CAP       0.103000
     11 C9          10.6430    -1.0920    -2.8810 c3         0 CAP      -0.127400
     12 C10         11.9810    -0.3320    -3.0440 c3         0 CAP       0.127800
     13 N2          13.2430    -1.1250    -2.8470 n4         0 CAP      -0.585800
     14 C11         14.3810    -0.1920    -3.1670 c3         0 CAP       0.047800
     15 C12         13.3360    -1.5900    -1.4330 c3         0 CAP       0.065100
     16 C13         15.8380    -0.7090    -3.0030 c          0 CAP       0.627100
     17 O2          16.6490     0.4370    -3.0200 oh         0 CAP      -0.572100
     18 O3          16.1490    -1.5560    -4.0790 o          0 CAP      -0.513000
     19 C14         13.2480    -2.3070    -3.7560 c3         0 CAP       0.065100
     20 C15         -1.6540    -1.1260    -0.7400 c3         0 CAP      -0.079400
     21 C16         -2.9550    -0.3300    -0.5620 c3         0 CAP      -0.079400
     22 C17         -4.1860    -1.2410    -0.4420 c3         0 CAP      -0.079400
     23 C18         -5.4920    -0.4500    -0.2800 c3         0 CAP      -0.079400
     24 C19         -6.7180    -1.3620    -0.1660 c3         0 CAP      -0.093100
     25 H2          -0.3240     0.3990     0.0160 hc         0 CAP       0.040700
     26 H3          -0.5640     0.4620    -1.7130 hc         0 CAP       0.040700
     27 H4           1.0140    -1.7060    -0.2450 hc         0 CAP       0.043200
     28 H5           0.7630    -1.6520    -1.9730 hc         0 CAP       0.043200
     29 H6           1.9500     0.5650    -2.0640 hc         0 CAP       0.041700
     30 H7           2.2300     0.4780    -0.3410 hc         0 CAP       0.041700
     31 H8           3.5410    -1.6400    -0.6660 hc         0 CAP       0.048700
     32 H9           3.2470    -1.5560    -2.3860 hc         0 CAP       0.048700
     33 H10          4.4620     0.6510    -2.4710 hc         0 CAP       0.046200
     34 H11          4.7760     0.5300    -0.7580 hc         0 CAP       0.046200
     35 H12          6.0630    -1.6100    -1.1670 hc         0 CAP       0.085700
     36 H13          5.7040    -1.4740    -2.8680 hc         0 CAP       0.085700
     37 H14          7.9620    -1.5040    -3.2720 hn         0 CAP       0.335500
     38 H15          9.3000     0.3120    -3.8900 h1         0 CAP       0.053700
     39 H16          9.6140     0.6760    -2.2020 h1         0 CAP       0.053700
     40 H17         10.6140    -1.6250    -1.9310 hc         0 CAP       0.091200
     41 H18         10.5130    -1.8360    -3.6670 hc         0 CAP       0.091200
     42 H19         11.9850     0.1160    -4.0400 hx         0 CAP       0.091700
     43 H20         11.9830     0.5070    -2.3450 hx         0 CAP       0.091700
     44 H21         14.2670     0.1920    -4.1830 hx         0 CAP       0.131700
     45 H22         14.2700     0.6800    -2.5190 hx         0 CAP       0.131700
     46 H23         17.4750     0.2820    -2.5790 ho         0 CAP       0.484000
     47 H24         14.2350    -2.1760    -1.2500 hx         0 CAP       0.116867
     48 H25         13.3350    -0.7510    -0.7350 hx         0 CAP       0.116867
     49 H26         12.5100    -2.2450    -1.1590 hx         0 CAP       0.116867
     50 H27         14.1320    -2.9280    -3.6140 hx         0 CAP       0.116867
     51 H28         12.4040    -2.9720    -3.5740 hx         0 CAP       0.116867
     52 H29         13.2180    -2.0030    -4.8030 hx         0 CAP       0.116867
     53 H1          -1.7380    -1.7600    -1.6250 hc         0 CAP       0.041200
     54 H30         -1.5210    -1.7990     0.1080 hc         0 CAP       0.041200
     55 H31         -2.8790     0.2990     0.3260 hc         0 CAP       0.039700
     56 H32         -3.0850     0.3460    -1.4090 hc         0 CAP       0.039700
     57 H33         -4.2550    -1.8760    -1.3260 hc         0 CAP       0.040700
     58 H34         -4.0590    -1.9110     0.4100 hc         0 CAP       0.040700
     59 H35         -5.4310     0.1840     0.6060 hc         0 CAP       0.038700
     60 H36         -5.6220     0.2220    -1.1300 hc         0 CAP       0.038700
     61 H37         -7.6310    -0.7750    -0.0540 hc         0 CAP       0.034367
     62 H38         -6.8330    -1.9840    -1.0550 hc         0 CAP       0.034367
     63 H39         -6.6420    -2.0230     0.6980 hc         0 CAP       0.034367
@<TRIPOS>BOND
     1    52    19 1   
     2    44    14 1   
     3    18    16 2   
     4    42    12 1   
     5    38    10 1   
     6    19    50 1   
     7    19    51 1   
     8    19    13 1   
     9    41    11 1   
    10    37     8 1   
    11    14    16 1   
    12    14    13 1   
    13    14    45 1   
    14    12    11 1   
    15    12    13 1   
    16    12    43 1   
    17    17    16 1   
    18    17    46 1   
    19    10    11 1   
    20    10     8 1   
    21    10    39 1   
    22    11    40 1   
    23    36     6 1   
    24    13    15 1   
    25     8     7 1   
    26    33     5 1   
    27    32     4 1   
    28     7     6 1   
    29     7     9 2   
    30    29     3 1   
    31    28     2 1   
    32     6     5 1   
    33     6    35 1   
    34    26     1 1   
    35     5     4 1   
    36     5    34 1   
    37    53    20 1   
    38     4     3 1   
    39     4    31 1   
    40    15    47 1   
    41    15    49 1   
    42    15    48 1   
    43    56    21 1   
    44    57    22 1   
    45     3     2 1   
    46     3    30 1   
    47    60    23 1   
    48     2     1 1   
    49     2    27 1   
    50    62    24 1   
    51     1    20 1   
    52     1    25 1   
    53    20    21 1   
    54    20    54 1   
    55    21    22 1   
    56    21    55 1   
    57    22    23 1   
    58    22    58 1   
    59    23    24 1   
    60    23    59 1   
    61    24    61 1   
    62    24    63 1   
@<TRIPOS>SUBSTRUCTURE
     1 CAP         1 TEMP              0 ****  ****    0 ROOT
